  
       XFOIL         Version 6.99
  
 Calculated polar for: NACA 2408                                       
  
 1 1 Reynolds number fixed          Mach number fixed         
  
 xtrf =   1.000 (top)        1.000 (bottom)  
 Mach =   0.000     Re =     1.000 e 6     Ncrit =   9.000  9.000
  
   alpha    CL        CD       CDp       CM     Top_Xtr  Bot_Xtr  Top_Itr  Bot_Itr
  ------ -------- --------- --------- -------- -------- -------- -------- --------
  -5.000  -0.3232   0.00939   0.00226  -0.0530   0.9847   0.0186   2.6603  90.0161
  -4.000  -0.1949   0.00788   0.00127  -0.0568   0.9721   0.0316   3.6480  91.8051
  -3.000  -0.0808   0.00693   0.00073  -0.0571   0.9455   0.0757   5.5513  95.5571
  -2.000   0.0264   0.00608   0.00042  -0.0559   0.9044   0.2094   8.4291 105.0440
   1.000   0.3606   0.00441   0.00028  -0.0549   0.6838   1.0000  23.8001 160.0000
   3.000   0.5709   0.00576   0.00044  -0.0522   0.4620   1.0000  39.2159 160.0000
   4.000   0.6746   0.00694   0.00072  -0.0510   0.2997   1.0000  50.5989 160.0000
   5.000   0.7719   0.00921   0.00157  -0.0491   0.0726   1.0000  67.0868 160.0000
   6.000   0.8742   0.01073   0.00236  -0.0477   0.0253   1.0000  71.4629 160.0000
   7.000   0.9731   0.01268   0.00352  -0.0457   0.0154   1.0000  73.0212 160.0000
   8.000   1.0698   0.01465   0.00477  -0.0436   0.0115   1.0000  73.9066 160.0000
  11.000   1.3037   0.02597   0.01309  -0.0306   0.0070   1.0000  75.3271 160.0000
  12.000   1.3423   0.03182   0.01780  -0.0222   0.0064   1.0000  75.5716 160.0000
  13.000   1.3428   0.03953   0.02416  -0.0135   0.0061   1.0000  75.7187 160.0000
  14.000   1.3133   0.05385   0.03660  -0.0139   0.0058   1.0000  75.8079 160.0000
  15.000   1.2315   0.08342   0.06453  -0.0296   0.0059   1.0000  75.7967 160.0000
