  
       XFOIL         Version 6.99
  
 Calculated polar for: NACA 7914                                       
  
 1 1 Reynolds number fixed          Mach number fixed         
  
 xtrf =   1.000 (top)        1.000 (bottom)  
 Mach =   0.000     Re =     1.000 e 6     Ncrit =   9.000  9.000
  
   alpha    CL        CD       CDp       CM     Top_Xtr  Bot_Xtr  Top_Itr  Bot_Itr
  ------ -------- --------- --------- -------- -------- -------- -------- --------
  -5.000  -0.0285   0.02911   0.01329  -0.1959   0.9398   0.0819   9.6324 102.6292
  -4.000   0.1428   0.02966   0.01337  -0.2093   0.9379   0.1238   9.8830 105.8359
  -2.000   0.4672   0.02968   0.01222  -0.2319   0.9280   0.2609  11.1491 113.5648
   2.000   1.1210   0.02429   0.00204  -0.2763   0.7376   0.5438  24.0241 127.6698
   3.000   1.2245   0.02524   0.00125  -0.2743   0.6084   0.5906  30.5869 129.9390
   4.000   1.3288   0.02613   0.00036  -0.2726   0.4887   0.6319  36.7052 131.9320
   5.000   1.4266   0.02710  -0.00041  -0.2696   0.3730   0.6664  42.7209 133.5986
   6.000   1.5187   0.02852  -0.00089  -0.2656   0.2576   0.6951  48.9286 134.9850
   7.000   1.5976   0.03031  -0.00074  -0.2589   0.1619   0.7185  54.4337 136.1156
   8.000   1.6695   0.03255  -0.00006  -0.2509   0.1006   0.7381  58.5345 137.0629
   9.000   1.7296   0.03496   0.00121  -0.2407   0.0685   0.7537  61.3128 137.8204
  10.000   1.7838   0.03754   0.00279  -0.2298   0.0510   0.7653  63.3108 138.3888
  11.000   1.8378   0.04117   0.00481  -0.2196   0.0399   0.7781  64.9186 139.0157
  12.000   1.8665   0.04478   0.00780  -0.2052   0.0335   0.7836  66.0136 139.2876
  13.000   1.8937   0.04937   0.01123  -0.1920   0.0293   0.7898  66.8581 139.5956
  14.000   1.9269   0.05564   0.01524  -0.1822   0.0259   0.7997  67.6005 140.0841
  15.000   1.9303   0.06299   0.02108  -0.1695   0.0234   0.8024  68.1943 140.2220
  16.000   1.9321   0.07167   0.02794  -0.1596   0.0215   0.8063  68.6815 140.4192
  17.000   1.9204   0.08375   0.03810  -0.1531   0.0199   0.8121  69.1094 140.7137
  18.000   1.9186   0.09657   0.04951  -0.1513   0.0186   0.8191  69.4888 141.0722
  19.000   1.8913   0.11128   0.06557  -0.1508   0.0174   0.8212  69.8259 141.1866
  20.000   1.8550   0.12835   0.08739  -0.1551   0.0166   0.8239  70.0794 141.3325
