  
       XFOIL         Version 6.99
  
 Calculated polar for: NACA 1510                                       
  
 1 1 Reynolds number fixed          Mach number fixed         
  
 xtrf =   1.000 (top)        1.000 (bottom)  
 Mach =   0.000     Re =     1.000 e 6     Ncrit =   9.000  9.000
  
   alpha    CL        CD       CDp       CM     Top_Xtr  Bot_Xtr  Top_Itr  Bot_Itr
  ------ -------- --------- --------- -------- -------- -------- -------- --------
  -5.000  -0.4294   0.00867   0.00170  -0.0320   0.9840   0.0584   2.7241  97.2316
  -4.000  -0.2994   0.00751   0.00116  -0.0363   0.9711   0.1302   3.7517 102.7149
  -3.000  -0.1880   0.00647   0.00079  -0.0361   0.9430   0.2554   5.7107 111.1345
  -2.000  -0.0813   0.00567   0.00055  -0.0347   0.9012   0.4051   8.4655 120.8794
  -1.000   0.0260   0.00512   0.00041  -0.0334   0.8445   0.5632  12.1670 131.0492
   0.000   0.1323   0.00477   0.00036  -0.0317   0.7698   0.7316  17.0305 141.8188
   1.000   0.2348   0.00468   0.00044  -0.0289   0.6762   0.8925  23.1124 152.1020
   2.000   0.3478   0.00522   0.00058  -0.0284   0.5559   0.9773  30.9347 157.7429
   3.000   0.4897   0.00620   0.00076  -0.0353   0.3949   0.9980  41.4458 159.7430
   4.000   0.5927   0.00741   0.00104  -0.0341   0.2327   1.0000  52.1909 160.0000
   5.000   0.6867   0.00882   0.00155  -0.0309   0.1050   1.0000  61.0399 160.0000
   6.000   0.7852   0.01011   0.00217  -0.0285   0.0495   1.0000  65.6457 160.0000
   7.000   0.8851   0.01150   0.00296  -0.0265   0.0302   1.0000  68.0219 160.0000
   8.000   0.9848   0.01293   0.00385  -0.0246   0.0228   1.0000  69.3486 160.0000
  10.000   1.1696   0.01709   0.00662  -0.0191   0.0152   1.0000  71.1528 160.0000
  11.000   1.2559   0.01935   0.00819  -0.0159   0.0131   1.0000  71.7766 160.0000
  12.000   1.3223   0.02304   0.01084  -0.0103   0.0117   1.0000  72.2205 160.0000
  13.000   1.3723   0.02665   0.01345  -0.0028   0.0107   1.0000  72.5846 160.0000
  14.000   1.3931   0.03243   0.01767   0.0047   0.0099   1.0000  72.8818 160.0000
  15.000   1.3763   0.04415   0.02711   0.0071   0.0094   1.0000  73.0665 160.0000
  16.000   1.3474   0.06160   0.04213   0.0004   0.0091   1.0000  73.1649 160.0000
  17.000   1.2702   0.09063   0.06901  -0.0150   0.0091   1.0000  73.1862 160.0000
  18.000   1.1525   0.13154   0.11266  -0.0374   0.0093   1.0000  73.1206 160.0000
  20.000   0.6459   0.21700   0.21756  -0.0565   0.0103   1.0000  72.7159 160.0000
