  
       XFOIL         Version 6.99
  
 Calculated polar for: NACA 3213                                       
  
 1 1 Reynolds number fixed          Mach number fixed         
  
 xtrf =   1.000 (top)        1.000 (bottom)  
 Mach =   0.000     Re =     1.000 e 6     Ncrit =   9.000  9.000
  
   alpha    CL        CD       CDp       CM     Top_Xtr  Bot_Xtr  Top_Itr  Bot_Itr
  ------ -------- --------- --------- -------- -------- -------- -------- --------
  -5.000  -0.2284   0.00971   0.00233  -0.0561   0.8391   0.0327  11.9421  98.4759
  -4.000  -0.1202   0.00907   0.00173  -0.0548   0.7782   0.0393  15.5299  99.7585
  -3.000  -0.0118   0.00864   0.00127  -0.0537   0.7066   0.0497  19.7416 101.3961
  -2.000   0.0971   0.00847   0.00099  -0.0528   0.6228   0.0672  24.6629 103.4923
  -1.000   0.2061   0.00847   0.00084  -0.0520   0.5347   0.1010  29.8464 106.3167
   1.000   0.4072   0.00709   0.00093  -0.0481   0.3551   0.8212  40.5398 148.4239
   2.000   0.5100   0.00752   0.00127  -0.0453   0.2975   0.9663  44.0429 156.9755
   3.000   0.6658   0.00820   0.00162  -0.0549   0.2706   0.9953  45.7046 159.4499
   4.000   0.7869   0.00869   0.00183  -0.0573   0.2579   1.0000  46.4947 160.0000
   5.000   0.8799   0.00926   0.00205  -0.0537   0.2485   1.0000  47.0873 160.0000
   6.000   0.9777   0.00978   0.00228  -0.0510   0.2415   1.0000  47.5292 160.0000
   7.000   1.0765   0.01055   0.00263  -0.0488   0.2331   1.0000  48.0699 160.0000
   8.000   1.1796   0.01114   0.00287  -0.0476   0.2254   1.0000  48.5734 160.0000
   9.000   1.2816   0.01179   0.00303  -0.0465   0.2117   1.0000  49.4770 160.0000
  10.000   1.3818   0.01252   0.00320  -0.0451   0.1973   1.0000  50.4748 160.0000
  11.000   1.4768   0.01349   0.00340  -0.0431   0.1741   1.0000  52.1834 160.0000
  12.000   1.5516   0.01547   0.00414  -0.0383   0.1278   1.0000  55.8528 160.0000
  13.000   1.5907   0.01909   0.00595  -0.0287   0.0739   1.0000  60.7656 160.0000
  14.000   1.6203   0.02372   0.00851  -0.0204   0.0453   1.0000  64.2863 160.0000
  15.000   1.6415   0.02987   0.01222  -0.0145   0.0329   1.0000  66.3838 160.0000
  16.000   1.6440   0.03920   0.01842  -0.0117   0.0265   1.0000  67.7317 160.0000
  17.000   1.6209   0.05350   0.02881  -0.0130   0.0232   1.0000  68.5418 160.0000
  18.000   1.5445   0.07727   0.04798  -0.0197   0.0216   1.0000  68.9608 160.0000
  19.000   1.4528   0.10504   0.07288  -0.0294   0.0210   1.0000  69.1402 160.0000
  20.000   1.3898   0.12943   0.09794  -0.0396   0.0197   1.0000  69.4920 160.0000
