  
       XFOIL         Version 6.99
  
 Calculated polar for: NACA 8615                                       
  
 1 1 Reynolds number fixed          Mach number fixed         
  
 xtrf =   1.000 (top)        1.000 (bottom)  
 Mach =   0.000     Re =     1.000 e 6     Ncrit =   9.000  9.000
  
   alpha    CL        CD       CDp       CM     Top_Xtr  Bot_Xtr  Top_Itr  Bot_Itr
  ------ -------- --------- --------- -------- -------- -------- -------- --------
  -5.000   0.5534   0.00878   0.00181  -0.2776   0.8331   0.0849  13.0679 107.2311
  -4.000   0.6702   0.00836   0.00157  -0.2794   0.8260   0.1132  13.5186 109.7311
  -3.000   0.7896   0.00807   0.00131  -0.2816   0.8165   0.1532  14.1116 112.5002
  -2.000   0.9042   0.00784   0.00115  -0.2828   0.8075   0.2034  14.6681 115.4348
  -1.000   1.0195   0.00775   0.00105  -0.2840   0.7979   0.2619  15.2691 118.5573
   0.000   1.1342   0.00771   0.00092  -0.2851   0.7875   0.3259  15.9127 121.8154
   1.000   1.2400   0.00775   0.00083  -0.2843   0.7756   0.3914  16.6546 125.0846
   2.000   1.3429   0.00786   0.00070  -0.2828   0.7609   0.4605  17.5630 128.5521
   3.000   1.4319   0.00810   0.00047  -0.2782   0.7413   0.5273  18.7701 131.9487
   5.000   1.5628   0.01022   0.00033  -0.2597   0.6508   0.6300  24.3060 137.4075
   6.000   1.5846   0.01356   0.00114  -0.2429   0.5608   0.6686  29.5857 139.5838
   7.000   1.6260   0.01679   0.00223  -0.2311   0.4936   0.7274  33.3732 142.9365
   9.000   1.7118   0.02396   0.00493  -0.2103   0.3664   1.0000  40.6125 160.0000
  10.000   1.7462   0.02874   0.00684  -0.1997   0.2931   1.0000  44.9154 160.0000
  11.000   1.7716   0.03445   0.00940  -0.1888   0.2148   1.0000  49.7051 160.0000
  12.000   1.7914   0.04097   0.01263  -0.1781   0.1448   1.0000  54.3583 160.0000
  13.000   1.8096   0.04811   0.01650  -0.1685   0.0968   1.0000  58.1099 160.0000
  14.000   1.8294   0.05557   0.02076  -0.1602   0.0680   1.0000  60.9754 160.0000
  15.000   1.8488   0.06350   0.02550  -0.1530   0.0515   1.0000  63.0993 160.0000
  16.000   1.8629   0.07236   0.03114  -0.1466   0.0415   1.0000  64.6983 160.0000
  17.000   1.8687   0.08253   0.03815  -0.1411   0.0345   1.0000  66.0106 160.0000
  18.000   1.8688   0.09384   0.04666  -0.1370   0.0299   1.0000  67.0049 160.0000
  19.000   1.8680   0.10555   0.05636  -0.1345   0.0266   1.0000  67.8122 160.0000
  20.000   1.8631   0.11801   0.06814  -0.1338   0.0239   1.0000  68.5150 160.0000
