  
       XFOIL         Version 6.99
  
 Calculated polar for: NACA 4812                                       
  
 1 1 Reynolds number fixed          Mach number fixed         
  
 xtrf =   1.000 (top)        1.000 (bottom)  
 Mach =   0.000     Re =     1.000 e 6     Ncrit =   9.000  9.000
  
   alpha    CL        CD       CDp       CM     Top_Xtr  Bot_Xtr  Top_Itr  Bot_Itr
  ------ -------- --------- --------- -------- -------- -------- -------- --------
  -5.000  -0.0564   0.01536   0.00760  -0.1537   0.9500   0.0992   5.7530 103.4718
  -4.000   0.1241   0.01429   0.00673  -0.1687   0.9474   0.1802   5.9660 108.8675
  -3.000   0.2325   0.01359   0.00657  -0.1684   0.9380   0.2639   6.6887 113.9571
  -2.000   0.3972   0.01226   0.00564  -0.1796   0.9353   0.3692   6.8992 120.1603
   0.000   0.6930   0.00904   0.00320  -0.1940   0.9220   0.5484   7.9072 130.5085
   1.000   0.8002   0.00784   0.00206  -0.1918   0.8997   0.6167   9.5780 134.4143
   2.000   0.8938   0.00791   0.00068  -0.1864   0.6342   0.6736  26.6146 137.6596
   3.000   0.9722   0.00949   0.00103  -0.1791   0.4797   0.7188  35.7193 140.2368
   4.000   1.0635   0.01100   0.00133  -0.1749   0.3349   0.7537  44.3760 142.2433
   5.000   1.1550   0.01278   0.00177  -0.1709   0.1968   0.7796  52.9106 143.7590
   6.000   1.2447   0.01460   0.00232  -0.1666   0.1035   0.7993  59.2069 144.9661
   7.000   1.3318   0.01631   0.00293  -0.1618   0.0592   0.8155  63.0113 146.0283
   8.000   1.4164   0.01795   0.00356  -0.1565   0.0409   0.8299  65.2629 147.0141
   9.000   1.4949   0.01985   0.00435  -0.1503   0.0307   0.8434  66.9203 147.9493
  10.000   1.5665   0.02200   0.00536  -0.1431   0.0252   0.8561  68.0460 148.8399
  11.000   1.6299   0.02456   0.00665  -0.1348   0.0212   0.8683  68.9766 149.6954
  12.000   1.6890   0.02726   0.00812  -0.1263   0.0190   0.8806  69.5939 150.5606
  13.000   1.7301   0.03120   0.01050  -0.1157   0.0169   0.8945  70.1785 151.5442
  14.000   1.7643   0.03534   0.01320  -0.1051   0.0154   0.9454  70.6425 155.1985
  15.000   1.7683   0.04281   0.01841  -0.0933   0.0142   1.0000  71.0368 160.0000
  16.000   1.7796   0.05113   0.02442  -0.0858   0.0134   1.0000  71.3065 160.0000
  17.000   1.7730   0.06332   0.03374  -0.0819   0.0127   1.0000  71.5700 160.0000
  18.000   1.7429   0.08079   0.04814  -0.0832   0.0121   1.0000  71.7819 160.0000
  19.000   1.6728   0.10657   0.07244  -0.0914   0.0117   1.0000  71.9378 160.0000
  20.000   1.6054   0.13407   0.10371  -0.1049   0.0114   1.0000  72.0309 160.0000
