  
       XFOIL         Version 6.99
  
 Calculated polar for: NACA 6707                                       
  
 1 1 Reynolds number fixed          Mach number fixed         
  
 xtrf =   1.000 (top)        1.000 (bottom)  
 Mach =   0.000     Re =     1.000 e 6     Ncrit =   9.000  9.000
  
   alpha    CL        CD       CDp       CM     Top_Xtr  Bot_Xtr  Top_Itr  Bot_Itr
  ------ -------- --------- --------- -------- -------- -------- -------- --------
  -5.000   0.3723   0.00969   0.00337  -0.2499   0.9270   0.0203   7.3427  88.9735
  -4.000   0.4936   0.00875   0.00274  -0.2533   0.9243   0.0489   7.5491  91.6498
  -3.000   0.6128   0.00827   0.00271  -0.2562   0.9223   0.1613   7.7074  99.7568
  -2.000   0.7311   0.00803   0.00287  -0.2587   0.9206   0.3123   7.8355 110.2839
  -1.000   0.8476   0.00809   0.00314  -0.2606   0.9191   0.4506   7.9557 119.9036
   0.000   0.9586   0.00769   0.00295  -0.2606   0.9109   0.5625   8.5890 127.6986
   1.000   1.0803   0.00663   0.00196  -0.2623   0.8986   0.6435   9.5362 133.3393
   2.000   1.1837   0.00579   0.00068  -0.2592   0.8440   0.6912  13.6921 136.6682
   3.000   1.1579   0.01061   0.00176  -0.2288   0.3871   0.7183  46.3615 138.6158
   4.000   1.2054   0.01467   0.00307  -0.2165   0.0416   0.7430  71.5281 140.4150
   5.000   1.2883   0.01651   0.00377  -0.2108   0.0157   0.7672  74.2638 142.1803
   7.000   1.4386   0.02174   0.00621  -0.1967   0.0077   0.8295  75.9071 146.7331
   8.000   1.5063   0.02569   0.00849  -0.1882   0.0065   1.0000  76.3036 160.0000
   9.000   1.5769   0.02971   0.01087  -0.1810   0.0053   1.0000  76.7221 160.0000
  10.000   1.6261   0.03860   0.01703  -0.1704   0.0047   1.0000  76.9331 160.0000
  11.000   1.5786   0.05465   0.03043  -0.1462   0.0046   1.0000  76.9744 160.0000
  12.000   1.4876   0.07254   0.04760  -0.1249   0.0046   1.0000  76.9756 160.0000
  13.000   1.3975   0.09489   0.07135  -0.1188   0.0046   1.0000  76.9620 160.0000
